Version 4
SHEET 1 880 680
WIRE 560 112 528 112
WIRE 528 128 528 112
WIRE 528 128 368 128
WIRE 560 144 368 144
WIRE 528 160 368 160
WIRE 512 176 368 176
WIRE 528 176 528 160
WIRE 576 176 528 176
WIRE 496 192 368 192
WIRE 480 208 368 208
WIRE 512 208 512 176
WIRE 576 208 512 208
WIRE 464 224 368 224
WIRE 448 240 368 240
WIRE -32 256 -112 256
WIRE 496 256 496 192
WIRE 576 256 496 256
WIRE 480 288 480 208
WIRE 576 288 480 288
WIRE -112 304 -112 256
WIRE 464 320 464 224
WIRE 576 320 464 320
WIRE 448 352 448 240
WIRE 576 352 448 352
WIRE -32 368 -32 256
WIRE 80 368 -32 368
WIRE -32 384 -32 368
WIRE 80 384 -32 384
WIRE 224 464 32 464
FLAG 80 -16 0
FLAG 80 0 0
FLAG 80 16 0
FLAG 80 32 0
FLAG 80 48 0
FLAG 80 64 0
FLAG 80 80 0
FLAG 80 96 0
FLAG 80 128 0
FLAG 80 144 0
FLAG 80 160 0
FLAG 80 176 0
FLAG 80 192 0
FLAG 80 208 0
FLAG 80 224 0
FLAG 80 240 0
FLAG 80 272 0
FLAG 80 288 0
FLAG 80 304 0
FLAG 80 320 0
FLAG 80 336 0
FLAG 80 352 0
FLAG -112 384 0
FLAG 560 112 out0
FLAG 560 144 out1
FLAG 576 176 out2
FLAG 576 208 out3
FLAG 576 256 out4
FLAG 576 288 out5
FLAG 576 320 out6
FLAG 576 352 out7
FLAG 32 464 0
SYMBOL ALU 544 160 R0
SYMATTR InstName X1
SYMBOL voltage -112 288 R0
SYMATTR InstName V1
SYMATTR Value 5
TEXT -88 456 Left 2 !.op
